[TITLE]
;;Project Title/Notes

[OPTIONS]
;;Option             Value
FLOW_UNITS           CMS
INFILTRATION         GREEN_AMPT
FLOW_ROUTING         DYNWAVE
LINK_OFFSETS         DEPTH
MIN_SLOPE            0
ALLOW_PONDING        YES
SKIP_STEADY_STATE    NO

START_DATE           03/01/2017
START_TIME           00:00:00
REPORT_START_DATE    03/01/2017
REPORT_START_TIME    00:00:00
END_DATE             03/01/2019
END_TIME             00:01:00
SWEEP_START          01/01
SWEEP_END            12/31
DRY_DAYS             0
REPORT_STEP          00:05:00
WET_STEP             00:05:00
DRY_STEP             01:00:00
ROUTING_STEP         0:00:10 
RULE_STEP            00:00:00

INERTIAL_DAMPING     PARTIAL
NORMAL_FLOW_LIMITED  BOTH
FORCE_MAIN_EQUATION  H-W
VARIABLE_STEP        0.00
LENGTHENING_STEP     0
MIN_SURFAREA         1.167
MAX_TRIALS           8
HEAD_TOLERANCE       0.0015
SYS_FLOW_TOL         5
LAT_FLOW_TOL         5
MINIMUM_STEP         0.5
THREADS              1

[EVAPORATION]
;;Data Source    Parameters
;;-------------- ----------------
MONTHLY          8.24   7.22   5.33   3.32   2      1.42   1.53   2.29   3.6    5.22   6.78   7.75  
DRY_ONLY         NO

[RAINGAGES]
;;Name           Format    Interval SCF      Source    
;;-------------- --------- ------ ------ ----------
RG1              VOLUME    1:00     1.0      FILE       "llqh_horaria_16_19.dat" llanquihue MM   

[SUBCATCHMENTS]
;;Name           Rain Gage        Outlet           Area     %Imperv  Width    %Slope   CurbLen  SnowPack        
;;-------------- ---------------- ---------------- -------- -------- -------- -------- -------- ----------------
S1               RG1              J1               3.82     77.2     136.2    5.67     0                        
S2               RG1              TS1              2.66     81.2     66.8     3.51     0                        
S3               RG1              SU4              3.04     74       162.44   5.88     0                        
S4               RG1              J2               2.79     81.5     174.37   1.25     0                        
S5               RG1              J5               18.15    19.2     380.44   3.14     0                        
S6               RG1              TS3              17.39    36.8     195.62   0.64     0                        
S_W5             RG1              W5               5.91     100      5910     10       0                        
S8               RG1              J3               1.32     81.4     88.51    1.55     0                        
S9               RG1              SU5              1.43     77       89       0.96     0                        
S10              RG1              S_W1             0.9      81.5     173.52   3.84     0                        
S11              RG1              J4               2.36     79.8     242.98   5.07     0                        
S12              RG1              J6               2.82     81.5     146.35   1.56     0                        
S13              RG1              SU6              2.32     75.2     111.01   1.43     0                        
S14              RG1              SU6              1.68     80.2     91.59    1.18     0                        
S15              RG1              SU5              3.67     37       167.65   1.83     0                        
S16              RG1              S_W2             4.13     36.6     116.7    1.37     0                        
S17              RG1              S_W2             2.95     37.7     115.09   1.87     0                        
S18              RG1              S35              8.4      27.5     332.11   1.19     0                        
S19              RG1              SU2              1.49     78.4     94.86    0.64     0                        
S20              RG1              SU2              0.85     81.5     139.41   1.63     0                        
S21              RG1              J8               0.59     81.5     99.15    3.17     0                        
S22              RG1              J8               1.6      81.5     96.47    0.6      0                        
S23              RG1              S_W2             2.6      81.5     155.87   1.19     0                        
S24              RG1              S6               5        53.3     238      7.14     0                        
S25              RG1              J7               7        39.9     164.28   0.71     0                        
S26              RG1              S_W4             9.16     25.2     124.57   0.54     0                        
S27              RG1              TS24             3.88     80.9     192      0.99     0                        
S28              RG1              TS30             1.84     76.7     151.98   0.11     0                        
S29              RG1              S_W3             1.84     40.3     227.67   2.46     0                        
S30              RG1              SU1              2.7      61.4     238.55   1.78     0                        
S31              RG1              TS36             8.74     63.5     258.59   0.89     0                        
S32              RG1              J9               2.99     59.7     145.82   0.98     0                        
S33              RG1              S34              4.5      63.7     144.62   0.49     0                        
S34              RG1              S_W4             5.68     24.7     546      2.88     0                        
S35              RG1              J7               7.66     30.7     95       0.5      0                        
S36              RG1              Out2             11.61    23.6     1450     1        0                        
S_W1             RG1              W1               0.8534   100      8534     10       0                        
S_W2             RG1              W2               4.8532   100      48532    10       0                        
S_W3             RG1              W3               6.4028   100      64028    10       0                        
S_W4             RG1              W4               9.2684   100      92684    10       0                        
S37              RG1              SU2              2.15     81.5     133.58   0.1      0                        
E1               RG1              W4               47.3     10       567      6.96     0                        
E2               RG1              S26              159.9    10       900      4.67     0                        
E3               RG1              S26              18.44    10       187.8    7.66     0                        
E4               RG1              S26              17.94    10       524.766  11       0                        
E5               RG1              S6               9.4      10       198      10.37    0                        
E6               RG1              S6               84.54    10       850.5    2.7      0                        

[SUBAREAS]
;;Subcatchment   N-Imperv   N-Perv     S-Imperv   S-Perv     PctZero    RouteTo    PctRouted 
;;-------------- ---------- ---------- ---------- ---------- ---------- ---------- ----------
S1               0.021      0.181      1.96       5          25         OUTLET    
S2               0.015      0.177      1.911      3.814      25         OUTLET    
S3               0.021      0.185      1.961      3.898      25         OUTLET    
S4               0.015      0.177      1.905      3.81       25         OUTLET    
S5               0.106      0.289      2.954      5.22       25         OUTLET    
S6               0.087      0.246      2.622      4.631      25         OUTLET    
S_W5             0.01       0.01       0          0          100        OUTLET    
S8               0.015      0.177      1.909      3.812      25         OUTLET    
S9               0.020      0.181      1.96       3.851      25         OUTLET    
S10              0.015      0.177      1.905      3.81       25         OUTLET    
S11              0.016      0.178      1.917      3.823      25         OUTLET    
S12              0.015      0.177      1.906      3.81       25         OUTLET    
S13              0.021      0.185      1.964      3.907      25         OUTLET    
S14              0.017      0.179      1.935      3.828      25         OUTLET    
S15              0.045      0.264      2.197      4.931      25         OUTLET    
S16              0.040      0.267      2.152      4.981      25         OUTLET    
S17              0.040      0.266      2.155      4.97       25         OUTLET    
S18              0.074      0.293      2.587      5.313      25         OUTLET    
S19              0.017      0.18       1.928      3.838      25         OUTLET    
S20              0.015      0.177      1.905      3.810      25         OUTLET    
S21              0.015      0.177      1.905      3.810      25         OUTLET    
S22              0.015      0.177      1.905      3.810      25         OUTLET    
S23              0.015      0.177      1.905      3.810      25         OUTLET    
S24              0.062      0.235      2.451      4.543      25         OUTLET    
S25              0.017      0.269      1.934      5.043      25         OUTLET    
S26              0.076      0.275      2.539      5.035      25         OUTLET    
S27              0.016      0.178      1.918      3.818      25         OUTLET    
S28              0.025      0.184      2.01       3.88       25         OUTLET    
S29              0.014      0.269      1.905      5.054      25         OUTLET    
S30              0.021      0.271      1.972      5.060      25         OUTLET    
S31              0.016      0.271      1.916      5.077      25         OUTLET    
S32              0.020      0.264      1.953      4.961      25         OUTLET    
S33              0.015      0.271      1.91       5.079      25         OUTLET    
S34              0.119      0.242      2.922      4.508      25         OUTLET    
S35              0.104      0.267      2.816      4.885      25         OUTLET    
S36              0.076      0.277      3.36       4.69       25         OUTLET    
S_W1             0.01       0.1        0          5          100        OUTLET    
S_W2             0.01       0.1        0          5          100        OUTLET    
S_W3             0.01       0.1        0          5          100        OUTLET    
S_W4             0.01       0.1        0          5          100        OUTLET    
S37              0.015      0.177      1.905      3.810      25         OUTLET    
E1               0.02       0.2        2.54       5.08       25         OUTLET    
E2               0.02       0.2        2.54       5.08       25         OUTLET    
E3               0.02       0.2        2.54       5.08       25         OUTLET    
E4               0.02       0.2        2.54       5.08       25         OUTLET    
E5               0.02       0.2        2.54       5.08       25         OUTLET    
E6               0.02       0.2        2.54       5.08       25         OUTLET    

[INFILTRATION]
;;Subcatchment   Suction    Ksat       IMD       
;;-------------- ---------- ---------- ----------
S1               109.98     10.9       0.33      
S2               109.98     10.9       0.33      
S3               109.98     10.9       0.33      
S4               109.98     10.9       0.33      
S5               109.98     10.9       0.33      
S6               109.98     10.9       0.33      
S_W5             109.98     10.9       0.33      
S8               109.98     10.9       0.33      
S9               109.98     10.9       0.33      
S10              109.98     10.9       0.33      
S11              109.98     10.9       0.33      
S12              109.98     10.9       0.33      
S13              109.98     10.9       0.33      
S14              109.98     10.9       0.33      
S15              109.98     10.9       0.33      
S16              109.98     10.9       0.33      
S17              109.98     10.9       0.33      
S18              109.98     10.9       0.33      
S19              109.98     10.9       0.33      
S20              109.98     10.9       0.33      
S21              109.98     10.9       0.33      
S22              109.98     10.9       0.33      
S23              109.98     10.9       0.33      
S24              109.98     10.9       0.33      
S25              109.98     10.9       0.33      
S26              109.98     10.9       0.33      
S27              109.98     10.9       0.33      
S28              109.98     10.9       0.33      
S29              109.98     10.9       0.33      
S30              109.98     10.9       0.33      
S31              109.98     10.9       0.33      
S32              109.98     10.9       0.33      
S33              109.98     10.9       0.33      
S34              109.98     10.9       0.33      
S35              109.98     10.9       0.33      
S36              109.98     10.9       0.33      
S_W1             109.98     10.9       0.33      
S_W2             109.98     10.9       0.33      
S_W3             109.98     10.9       0.33      
S_W4             109.98     10.9       0.33      
S37              109.98     10.9       0.33      
E1               109.98     10.9       0.33      
E2               109.98     10.9       0.33      
E3               109.98     10.9       0.33      
E4               109.98     10.9       0.33      
E5               109.98     10.9       0.33      
E6               109.98     10.9       0.33      

[JUNCTIONS]
;;Name           Elevation  MaxDepth   InitDepth  SurDepth   Aponded   
;;-------------- ---------- ---------- ---------- ---------- ----------
J6               55.588     0.2        0          0          1000      
J8               55         0.2        0          0          400       
J7               56         0.2        0          0          500       
J9               54         0.2        0          0          1500      
J1               53.5       0.2        0          0          1000      
J2               55.338     0.2        0          0          700       
J5               55.588     0.2        0          0          1000      
J4               55.088     0.2        0          0          750       
J3               55.338     0.2        0          0          400       
N1               54.008     1.28       0.35       0          0         
TS1              53.288     3.18       2.07       0          1000      
TS10             52.498     0          0.5        0          1000      
TS11             53.526     0          0.5        0          1000      
TS12             53.046     0          0.5        0          1000      
TS13             54.447     0          0.5        0          1000      
TS14             53.41      0          0.5        0          1000      
TS15             53.369     0          0.5        0          1000      
TS16             53.172     0          0.5        0          1000      
TS17             52.813     0          0.5        0          1000      
TS18             53.379     0          0.5        0          1000      
TS19             53.962     0          0.5        0          1000      
TS2              53.188     0          0.5        0          1000      
TS20             54.53      0          0.5        0          1000      
TS21             52.544     0          0.5        0          1000      
TS22             52.592     0          0.5        0          1000      
TS23             51.828     0          0.5        0          1000      
TS24             52.057     0          0.5        0          1000      
TS25             52.169     0          0.5        0          1000      
TS26             51.564     0          0.5        0          1000      
TS27             51.553     0          0.5        0          1000      
TS28             51.735     0          0.5        0          1000      
TS29             52.770     0          0.5        0          1000      
TS3              53.088     0          0.5        0          1000      
TS30             52.538     0          0.5        0          1000      
TS31             52.414     0          0.5        0          1000      
TS32             52.156     0          0.5        0          1000      
TS33             52.359     0          0.5        0          1000      
TS34             52.088     0          0.5        0          1000      
TS35             51.594     0          0.5        0          1000      
TS36             51.919     0          0.5        0          1000      
TS4              53.093     0          0.5        0          1000      
TS5              53.199     0          0.5        0          1000      
TS6              53.110     0          0.5        0          1000      
TS7              52.829     0          0.5        0          1000      
TS8              52.8       0          0.5        0          1000      
TS9              53.149     0          0.5        0          1000      
N2               53.258     0.6        0.21       10         0         
N3               52.818     0.5        0          10         0         

[OUTFALLS]
;;Name           Elevation  Type       Stage Data       Gated    Route To        
;;-------------- ---------- ---------- ---------------- -------- ----------------
Out1             49.5       FREE                        NO                       
Out2             54         FREE                        NO                       
Out3             45         FREE                        NO                       

[STORAGE]
;;Name           Elev.    MaxDepth   InitDepth  Shape      Curve Name/Params            N/A      Fevap    Psi      Ksat     IMD     
;;-------------- -------- ---------- ----------- ---------- ---------------------------- -------- --------          -------- --------
W1               53.838   1.45       0.36       TABULAR    BAQUEDANO                    0        0        109.98   10.9     0       
W2               50.388   4.2        2.9        TABULAR    LOTO                         0        0        88.9     3.302    0       
W3               52.638   0.95       0.19       TABULAR    HELECHOS                     0        0        109.98   10.9     0       
W4               50.338   2.5        1.5        TABULAR    RANAS                        0        0        88.9     3.302    0       
SU1              53       10         0          FUNCTIONAL 2500      0         0        0        0        109.98   10.9     0       
SU2              54       10         0          FUNCTIONAL 2500      0         0        0        0        109.98   10.9     0       
SU3              55.088   10         0          FUNCTIONAL 2500      0         0        0        0        109.98   10.9     0       
SU4              54       10         0          FUNCTIONAL 2500      0         0        0        0        109.98   10.9     0       
SU5              52       10         0          FUNCTIONAL 2500      0         0        0        0        109.98   10.9     0       
W5               54.6     2          0.2        TABULAR    TEODOSIO_SARAO               0        0        109.98   10.9     0       
SU6              55       10         0          FUNCTIONAL 5000      0         0        0        0        109.98   10.9     0       

[CONDUITS]
;;Name           From Node        To Node          Length     Roughness  InOffset   OutOffset  InitFlow   MaxFlow   
;;-------------- ---------------- ---------------- ---------- ---------- ---------- ---------- ---------- ----------
C1               TS1              TS2              50         0.1        0          0          0          0         
C2               TS2              TS3              50         0.1        0          0          0          0         
C3               TS3              TS4              50         0.1        0          0          0          0         
C4               TS4              TS5              50         0.1        0          0          0          0         
C5               TS5              TS6              50         0.1        0          0          0          0         
C6               TS6              TS7              50         0.1        0          0          0          0         
C7               TS7              TS8              50         0.1        0          0          0          0         
C8               TS8              TS9              50         0.1        0          0          0          0         
C9               TS9              TS10             50         0.1        0          0          0          0         
C10              TS10             TS11             50         0.1        0          0          0          0         
C11              TS11             TS12             50         0.1        0          0          0          0         
C12              TS12             TS13             50         0.1        0          0          0          0         
C13              TS13             TS14             50         0.1        0          0          0          0         
C14              TS14             TS15             50         0.1        0          0          0          0         
C15              TS15             TS16             50         0.1        0          0          0          0         
C16              TS16             TS17             50         0.1        0          0          0          0         
C17              TS17             TS18             50         0.1        0          0          0          0         
C18              TS18             TS19             50         0.1        0          0          0          0         
C19              TS19             TS20             50         0.1        0          0          0          0         
C20              TS20             TS21             50         0.1        0          0          0          0         
C21              TS21             TS22             50         0.1        0          0          0          0         
C22              TS22             TS23             50         0.1        0          0          0          0         
C23              TS23             TS24             50         0.1        0          0          0          0         
C24              TS24             TS25             50         0.1        0          0          0          0         
C25              TS25             TS26             50         0.1        0          0          0          0         
C26              TS26             TS27             50         0.1        0          0          0          0         
C27              TS27             TS28             50         0.1        0          0          0          0         
C28              TS28             TS29             50         0.1        0          0          0          0         
C29              TS29             TS30             50         0.1        0          0          0          0         
C30              TS30             TS31             50         0.1        0          0          0          0         
C31              TS31             TS32             50         0.1        0          0          0          0         
C32              TS32             TS33             50         0.1        0          0          0          0         
C33              TS33             TS34             50         0.1        0          0          0          0         
C34              TS34             TS35             50         0.1        0          0          0          0         
C35              TS35             TS36             50         0.1        0          0          0          0         
C37              J7               Out2             50         0.01       0          0          0          0         
C38              J4               W1               10         0.015      0          0.2        0          0         
C39              J3               W1               10         0.015      0          0.2        0          0         
C0               J1               TS3              50         0.01       0          0          0          0         
Calle1           J5               J4               150        0.02       0          0          0          0         
Calle2           J9               W4               350        0.015      0          0          0          0         
Calle3           J8               SU2              95         0.01       0          0          0          0         
C40              N1               TS1              124        0.1        0          0          0          0         
Calle0           J2               TS1              130        0.02       0          1.8        0          0         
C41              N2               W3               30         0.015      0          0.56       0          0         
C42              N3               TS32             18.5       0.015      0          0.31       0          0         
C36              TS36             W4               50         0.1        0          1.25       0          0         
C43              W4               Out1             45         0.1        0.87       0          0          0         
C44              J6               SU3              100        0.1        0          0          0          0         
C45              W5               TS5              100        0.1        0          0          0          0         
C46              W5               TS7              100        0.1        0          0          0          0         
C47              W5               TS9              100        0.1        0          0          0          0         

[ORIFICES]
;;Name           From Node        To Node          Type         Offset     Qcoeff     Gated    CloseTime 
;;-------------- ---------------- ---------------- ------------ ---------- ---------- -------- ----------
O2               W2               N2               SIDE         2.87       0.65       NO       0         
O3               W3               N3               SIDE         0.29       0.65       NO       0         

[WEIRS]
;;Name           From Node        To Node          Type         CrestHt    Qcoeff     Gated    EndCon   EndCoeff   Surcharge  RoadWidth  RoadSurf   Coeff. Curve
;;-------------- ---------------- ---------------- ------------ ---------- ---------- -------- -------- ---------- ---------- ---------- ---------- ----------------
V1               W1               N1               TRANSVERSE   0.75       3.33       NO       0        0          YES       

[XSECTIONS]
;;Link           Shape        Geom1            Geom2      Geom3      Geom4      Barrels    Culvert   
;;-------------- ------------ ---------------- ---------- ---------- ---------- ---------- ----------
C1               RECT_OPEN    2.1              2          0          0          1                    
C2               IRREGULAR    TS3              0          0          0          1                    
C3               IRREGULAR    TS3              0          0          0          1                    
C4               IRREGULAR    TS4              0          0          0          1                    
C5               IRREGULAR    TS5              0          0          0          1                    
C6               IRREGULAR    TS5              0          0          0          1                    
C7               IRREGULAR    TS7              0          0          0          1                    
C8               IRREGULAR    TS8              0          0          0          1                    
C9               IRREGULAR    TS9              0          0          0          1                    
C10              IRREGULAR    TS10             0          0          0          1                    
C11              IRREGULAR    TS11             0          0          0          1                    
C12              IRREGULAR    TS12             0          0          0          1                    
C13              IRREGULAR    TS13             0          0          0          1                    
C14              IRREGULAR    TS14             0          0          0          1                    
C15              IRREGULAR    TS15             0          0          0          1                    
C16              IRREGULAR    TS16             0          0          0          1                    
C17              IRREGULAR    TS17             0          0          0          1                    
C18              IRREGULAR    TS18             0          0          0          1                    
C19              IRREGULAR    TS19             0          0          0          1                    
C20              IRREGULAR    TS20             0          0          0          1                    
C21              IRREGULAR    TS21             0          0          0          1                    
C22              IRREGULAR    TS22             0          0          0          1                    
C23              IRREGULAR    TS23             0          0          0          1                    
C24              IRREGULAR    TS24             0          0          0          1                    
C25              IRREGULAR    TS25             0          0          0          1                    
C26              IRREGULAR    TS26             0          0          0          1                    
C27              IRREGULAR    TS27             0          0          0          1                    
C28              IRREGULAR    TS28             0          0          0          1                    
C29              IRREGULAR    TS29             0          0          0          1                    
C30              IRREGULAR    TS30             0          0          0          1                    
C31              IRREGULAR    TS31             0          0          0          1                    
C32              IRREGULAR    TS32             0          0          0          1                    